/*--------------------------------*- C++ -*----------------------------------*\
| =========                 |                                                 |
| \\      /  F ield         | OpenFOAM: The Open Source CFD Toolbox           |
|  \\    /   O peration     | Version:  4.x                                   |
|   \\  /    A nd           | Web:      www.OpenFOAM.org                      |
|    \\/     M anipulation  |                                                 |
\*---------------------------------------------------------------------------*/
FoamFile
{
    version     2.0;
    format      ascii;
    class       dictionary;
    object      blockMeshDict;
}
// * * * * * * * * * * * * * * * * * * * * * * * * * * * * * * * * * * * * * //

convertToMeters 1;

vertices
(
    (-1.5 0 0)
    (11.5 0 0)
    (11.5 0.1 0)
    (-1.5 0.1 0)
    (-1.5 0 0.36)
    (11.5 0 0.36)
    (11.5 0.1 0.36)
    (-1.5 0.1 0.36)
);

blocks
(
    hex (0 1 2 3 4 5 6 7) (832 1 36) simpleGrading (1 1 1)
);

edges
(
);

boundary
(
    walls
    {
        type wall;
        faces
        (
            
            
            (0 3 2 1)
            
        );
     }
    inlet
	{
	type cyclic;
    neighbourPatch  outlet;
	faces
	(
     	 (0 4 7 3)
	);
	}
	atmosphere
	{
	type patch;
    faces
	(
     	 (4 5 6 7)
	);
	}
	outlet
	{
	type cyclic;
    neighbourPatch  inlet;
	faces
	(
     	 (2 6 5 1)
	);
	}
  front
	{
	type empty;
	faces
	(
     	 (1 5 4 0)
	);
	}
  back
	{
	type empty;
	faces
	(
 	 (3 7 6 2)
	);
	}
);

mergePatchPairs
(
);

// ************************************************************************* //
